! File generated by DesignBuilder - 7.3.1.003 03/09/2025 - 13:55:36
! Source file: C:\Users\dh00857\Downloads\temp\b1-test1.dsb

! Geometry convention template : External measurements to top of roof
! Zone geometry and surface areas : 2-Outer
! Zone volume calculation method : 1-Inner
! Zone floor area calculation method : 1-Inner
! Window to wall ratio method : 1-Inner

Version, 9.4.0.002;                               !- Version Identifier

RunPeriod,                                        !- Annual simulation
   Untitled (01-01:31-12),                        !- Location
   1,1, 2002,                                     !- Start Month , Day
   12,31, 2002,                                   !- End Month , Day
   ,                                              !- Day of Week for Start Day
   No,                                            !- Use weather file holidays/special day periods
   No,                                            !- Use WeatherFile DaylightSavingPeriod - will use daylight saving time shown below
   Yes,                                           !- Apply Weekend Holiday Rule - will reassign weekend holidays to Monday
   Yes,                                           !- use weather file rain indicators
   Yes,                                           !- use weather file snow indicators
   No;                                            !- Treat Weather as Actual

RunPeriodControl:DaylightSavingTime, Last Sunday in March,Last Sunday in October;  !- Daylight saving dates - one hour is added to local mean time to obtain the locally observed time during this period

! Hourly weather file: C:\ProgramData\DesignBuilder\Weather Data\GBR_BIRMINGHAM_IWEC.epw

Site:Location,Untitled (01-01:31-12)  (01-01:31-12),  !- Location Name
   52.45,                                         !- Latitude
   -1.73,                                         !- Longitude
   0,                                             !- Time Zone
   99;                                            !- Elevation {m}

Site:GroundTemperature:BuildingSurface,           !- Annual ground temperatures - 1 value for each month
   18,                                            !- Jan ground temperature
   18,                                            !- Feb ground temperature
   18,                                            !- Mar ground temperature
   18,                                            !- Apr ground temperature
   18,                                            !- May ground temperature
   18,                                            !- Jun ground temperature
   18,                                            !- Jul ground temperature
   18,                                            !- Aug ground temperature
   18,                                            !- Sep ground temperature
   18,                                            !- Oct ground temperature
   18,                                            !- Nov ground temperature
   18;                                            !- Dec ground temperature

Site:GroundTemperature:Deep,                      !- Annual ground temperatures - 1 value for each month
   14,                                            !- Jan deep ground temperature
   14,                                            !- Feb deep ground temperature
   14,                                            !- Mar deep ground temperature
   14,                                            !- Apr deep ground temperature
   14,                                            !- May deep ground temperature
   14,                                            !- Jun deep ground temperature
   14,                                            !- Jul deep ground temperature
   14,                                            !- Aug deep ground temperature
   14,                                            !- Sep deep ground temperature
   14,                                            !- Oct deep ground temperature
   14,                                            !- Nov deep ground temperature
   14;                                            !- Dec deep ground temperature

Site:GroundTemperature:Shallow,                   !- Annual ground temperatures - 1 value for each month
   14,                                            !- Jan shallow ground temperature
   14,                                            !- Feb shallow ground temperature
   14,                                            !- Mar shallow ground temperature
   14,                                            !- Apr shallow ground temperature
   14,                                            !- May shallow ground temperature
   14,                                            !- Jun shallow ground temperature
   14,                                            !- Jul shallow ground temperature
   14,                                            !- Aug shallow ground temperature
   14,                                            !- Sep shallow ground temperature
   14,                                            !- Oct shallow ground temperature
   14,                                            !- Nov shallow ground temperature
   14;                                            !- Dec shallow ground temperature

Site:GroundTemperature:FCfactorMethod,            !- Annual ground temperatures - 1 value for each month
   6.20,                                          !- January FCfactorMethod ground temperature {C}
   4.12,                                          !- Februry FCfactorMethod ground temperature {C}
   3.56,                                          !- March FCfactorMethod ground temperature {C}
   4.05,                                          !- April FCfactorMethod ground temperature {C}
   6.86,                                          !- May FCfactorMethod ground temperature {C}
   10.00,                                         !- June FCfactorMethod ground temperature {C}
   12.96,                                         !- July FCfactorMethod ground temperature {C}
   15.10,                                         !- August FCfactorMethod ground temperature {C}
   15.73,                                         !- September FCfactorMethod ground temperature {C}
   14.72,                                         !- October FCfactorMethod ground temperature {C}
   12.30,                                         !- November FCfactorMethod ground temperature {C}
   9.24;                                          !- December FCfactorMethod ground temperature {C}

Site:GroundReflectance,                           !- Annual ground reflectances - 1 value for each month
   0.2,                                           !- Jan ground reflectance
   0.2,                                           !- Feb ground reflectance
   0.2,                                           !- Mar ground reflectance
   0.2,                                           !- Apr ground reflectance
   0.2,                                           !- May ground reflectance
   0.2,                                           !- Jun ground reflectance
   0.2,                                           !- Jul ground reflectance
   0.2,                                           !- Aug ground reflectance
   0.2,                                           !- Sep ground reflectance
   0.2,                                           !- Oct ground reflectance
   0.2,                                           !- Nov ground reflectance
   0.2;                                           !- Dec ground reflectance

Site:GroundReflectance:SnowModifier,
   1.0,                                           !- Ground Reflected Solar Modifier
   1.0;                                           !- Daylighting Ground Reflected Solar Modifier

SimulationControl,
   Yes,                                           !- Do the zone sizing calculation
   Yes,                                           !- Do the system sizing calculation
   No,                                            !- Do the plant sizing calculation
   No,                                            !- Do the design day calculation
   Yes;                                           !- Do the weather file calculation


SizingPeriod:DesignDay, Summer Design Day in Untitled (01-01:31-12) Jun,  !- Design Day Name
   6,                                             !- Month
   15,                                            !- Day of Month
   SummerDesignDay,                               !- Day Type -- used for schedules
   26.2,                                          !- Maximum Dry-Bulb Temperature {C}
   9.2,                                           !- Daily Dry-Bulb Temperature Range {C}
   ,                                              !- Dry-Bulb Temperature Range Modifier Type
   ,                                              !- Dry-Bulb Temperature Range Modifier Schedule
   WetBulb,                                       !- Humidity Condition Type
   17.8,                                          !- Wetbulb at Maximum Dry-Bulb{C}
   ,                                              !- Humidity Condition Day Schedule Name
   ,                                              !- Humidity Ratio at Maximum Dry-Bulb
   ,                                              !- Enthalpy Ratio at Maximum Dry-Bulb
   ,                                              !- Daily Wet-Bulb Temperature Range
   100141.3,                                      !- Barometric Pressure {N/M**2}
   0,                                             !- Wind Speed {m/s}
   0,                                             !- Wind Direction {Degrees N=0, S=180}
   No,                                            !- Rain Indicator
   No,                                            !- Snow on ground indicator
   Yes,                                           !- Daylight Savings Time Indicator
   ASHRAEClearSky,                                !- Solar Model Indicator
   ,                                              !- Beam Solar Day Schedule Name
   ,                                              !- Diffuse Solar Day Schedule Name
   ,                                              !- ASHRAE Clear Sky Optical Depth for Beam Irradiance (taub)
   ,                                              !- ASHRAE Clear Sky Optical Depth for Diffuse Irradiance (taud)
   0.98;                                          !- Clearness {0.0 to 1.2}

SizingPeriod:DesignDay, Winter Design Day in Untitled (01-01:31-12),  !- Design Day Name
   1,                                             !- Month
   15,                                            !- Day of Month
   WinterDesignDay,                               !- Day Type -- used for schedules
   -5.1,                                          !- Max Dry-Bulb {C}
   0,                                             !- Daily Temp Range {C}
   ,                                              !- Dry-Bulb Temperature Range Modifier Type
   ,                                              !- Dry-Bulb Temperature Range Modifier Schedule
   WetBulb,                                       !- Humidity Condition Type
   -5.1,                                          !- Wet-Bulb at Max {C}
   ,                                              !- Humidity Condition Day Schedule Name
   ,                                              !- Humidity Ratio at Maximum Dry-Bulb
   ,                                              !- Enthalpy Ratio at Maximum Dry-Bulb
   ,                                              !- Daily Wet-Bulb Temperature Range
   100141.3,                                      !- Barometric Pressure {N/M**2}
   1.7,                                           !- Wind Speed {M/Sec}
   160,                                           !- Wind Direction {Degrees N=0, S=180}
   No,                                            !- Rain Indicator
   No,                                            !- Snow on ground indicator
   No,                                            !- Daylight Savings Time Indicator
   ,                                              !- Solar Model Indicator
   ,                                              !- Beam Solar Day Schedule Name
   ,                                              !- Diffuse Solar Day Schedule Name
   ,                                              !- ASHRAE Clear Sky Optical Depth for Beam Irradiance (taub)
   ,                                              !- ASHRAE Clear Sky Optical Depth for Diffuse Irradiance (taud)
   0;                                             !- Clearness {0.0 to 1.2} - gives no sun (but does include long wave radiant heat exchange with sky)

Timestep, 2;                                      !- Timesteps/hour

ConvergenceLimits,
   1,                                             !- Minimum System Time Step (0=same as zone time step)
   25;                                            !- Maximum HVAC Iterations (1=min, 20=default)

ScheduleTypeLimits, Any Number;                         ! Not limited
ScheduleTypeLimits, Fraction,     0.0, 1.0, CONTINUOUS;
ScheduleTypeLimits, Temperature,  -60, 200, CONTINUOUS;
ScheduleTypeLimits, Control Type,   0,   4, DISCRETE;
ScheduleTypeLimits, On/Off,         0,   1, DISCRETE;

Schedule:Compact, 
      On,                                         ! Name
      Any Number,                                 ! Type
      Through: 12/31,                             ! Type
      For: AllDays,                               ! All days in year
      Until: 24:00,                               ! All hours in day
       1;     

Schedule:Compact, 
      Off,                                        ! Name
      Any Number,                                 ! Type
      Through: 12/31,                             ! Type
      For: AllDays,                               ! All days in year
      Until: 24:00,                               ! All hours in day
       0;     

Schedule:Compact, 
      Work efficiency,                            ! Name
      Any Number,                                 ! Type
      Through: 12/31,                             ! Type
      For: AllDays,                               ! All days in year
      Until: 24:00,                               ! All hours in day
       0;     

Schedule:Compact,
      OpaqueShade,                                ! Name
      Any Number,                                 ! Type
      Through: 12/31,                             ! Type
      For: AllDays,                               ! All days in year
      Until: 24:00,                               ! All hours in day
       0;     
       
Schedule:Compact,
    Zone Comfort Control Type Sched,              !- Name
    Control Type,                                 !- Schedule Type Limits Name
    Through: 12/31,                               !- Field 1
    For: AllDays,                                 !- Field 2
    Until: 24:00,                                 !- Field 3
    4;                                            !- Field 4

Schedule:Compact,
    Design Days Only,                             !- Name
    Any Number,                                   !- Schedule Type Limits Name
    Through: 12/31,                               !- Field 1
    For: SummerDesignDay WinterDesignDay,         !- Field 2
    Until: 24:00,                                 !- Field 3
    1,                                            !- Field 4
    For: AllOtherDays,                            !- Field 2
    Until: 24:00,                                 !- Field 3
    0;
      
! off heating day
Schedule:Day:Hourly,  0, Any Number,
   0,0,0,0,0,0,0,0,0,0,0,0,0,0,0,0,0,0,0,0,0,0,0,0;

! off cooling day
Schedule:Day:Hourly,  50, Any Number,
   50,50,50,50,50,50,50,50,50,50,50,50,50,50,50,50,50,50,50,50,50,50,50,50;

! used in seasonal schedules
Schedule:Day:Hourly,  Off, Fraction,
   0,0,0,0,0,0,0,0,0,0,0,0,0,0,0,0,0,0,0,0,0,0,0,0;

Schedule:Week:Daily, Off,
   Off,Off,Off,Off,
   Off,Off,Off,Off,
   Off,Off,Off,Off;

! -------------------- Control type schedules (for heating & cooling) ----------------------

Schedule:Day:Hourly, Summer Control Type Day Sch, Control Type,
   4,4,4,4,4,4,4,4,4,4,4,4,4,4,4,4,4,4,4,4,4,4,4,4;

Schedule:Day:Hourly, Winter Control Type Day Sch, Control Type,
   4,4,4,4,4,4,4,4,4,4,4,4,4,4,4,4,4,4,4,4,4,4,4,4;

Schedule:Day:Hourly, Summer Control Type Day Sch - cool, Control Type,
   2,2,2,2,2,2,2,2,2,2,2,2,2,2,2,2,2,2,2,2,2,2,2,2;

Schedule:Day:Hourly, Winter Control Type Day Sch - heat, Control Type,
   1,1,1,1,1,1,1,1,1,1,1,1,1,1,1,1,1,1,1,1,1,1,1,1;

Schedule:Week:Daily, Summer Control Type Week Sch,
   Summer Control Type Day Sch,Summer Control Type Day Sch,Summer Control Type Day Sch,
   Summer Control Type Day Sch,Summer Control Type Day Sch,Summer Control Type Day Sch,
   Summer Control Type Day Sch,Summer Control Type Day Sch,Summer Control Type Day Sch,
   Summer Control Type Day Sch,Summer Control Type Day Sch,Summer Control Type Day Sch;

Schedule:Week:Daily, Winter Control Type Week Sch,
   Winter Control Type Day Sch,Winter Control Type Day Sch,Winter Control Type Day Sch,
   Winter Control Type Day Sch,Winter Control Type Day Sch,Winter Control Type Day Sch,
   Winter Control Type Day Sch,Winter Control Type Day Sch,Winter Control Type Day Sch,
   Winter Control Type Day Sch,Winter Control Type Day Sch,Winter Control Type Day Sch;

Schedule:Week:Daily, Summer Control Type Week Sch - cool,
   Summer Control Type Day Sch - cool,Summer Control Type Day Sch - cool,Summer Control Type Day Sch - cool,
   Summer Control Type Day Sch - cool,Summer Control Type Day Sch - cool,Summer Control Type Day Sch - cool,
   Summer Control Type Day Sch - cool,Summer Control Type Day Sch - cool,Summer Control Type Day Sch - cool,
   Summer Control Type Day Sch - cool,Summer Control Type Day Sch - cool,Summer Control Type Day Sch - cool;

Schedule:Week:Daily, Winter Control Type Week Sch - heat,
   Winter Control Type Day Sch - heat,Winter Control Type Day Sch - heat,Winter Control Type Day Sch - heat,
   Winter Control Type Day Sch - heat,Winter Control Type Day Sch - heat,Winter Control Type Day Sch - heat,
   Winter Control Type Day Sch - heat,Winter Control Type Day Sch - heat,Winter Control Type Day Sch - heat,
   Winter Control Type Day Sch - heat,Winter Control Type Day Sch - heat,Winter Control Type Day Sch - heat;

!Material:InfraredTransparent,
!IRTMaterial; !- Name

!Construction,
!IRTSurface,  !- Name
!IRTMaterial; !- Outside Layer





Material:NoMass, 
LinearBridgingLayer,                  ! Material Name
Rough,                                ! Roughness
0.6267 ,                              ! Resistance {M**2K/W} will give Total Resistance 1
0.0000100 ,                           ! Thermal Absorptance
0.0000000 ,                           ! Solar Absorptance
0.0000000 ;                           ! Visible Absorptance

Construction,
LinearBridgingConstruction,           !- Name
LinearBridgingLayer;                  !- Layer

Schedule:Compact,
TypOperativeTempControlSch,
Temperature,
Through: 31 Dec,
For: SummerDesignDay WinterDesignDay,
Until: 24:00, 0.0,
For: AllOtherDays,
Until: 24:00, 0.5;

Schedule:Compact, 
      OnWinterDesignDay,                          ! Name
      Any Number,                                 
      Through: 12/31,                             
      For: WinterDesignDay,                       ! All days in year
      Until: 24:00, 1,
      For: AllOtherDays,
      Until: 24:00, 0;     

Schedule:Compact, 
      OnSummerDesignDay,                          ! Name
      Any Number,                                 
      Through: 12/31,                             
      For: SummerDesignDay,                       ! All days in year
      Until: 24:00, 1,
      For: AllOtherDays,
      Until: 24:00, 0;     

Material:InfraredTransparent,
IRTMaterial; !- Name

Construction,
IRTSurface,  !- Name
IRTMaterial; !- Outside Layer


! Schedule: On 24/7
Schedule:Compact, 
On 24/7, 
Any Number,
Through: 12/31,
For: AllDays,   
Until: 24:00,   1 ;


! Schedule: Dwell_DomCirculation_Occ
Schedule:Compact,
Dwell_DomCirculation_Occ,
Fraction,
Through: 31 Dec,
For: Weekdays SummerDesignDay,
Until: 07:00, 0,
Until: 10:00, 1,
Until: 19:00, 0,
Until: 23:00, 0.2,
Until: 24:00, 0,
For: Weekends,
Until: 07:00, 0,
Until: 23:00, 1,
Until: 24:00, 0.3,
For: Holidays,
Until: 07:00, 0,
Until: 23:00, 1,
Until: 24:00, 0.3,
For: WinterDesignDay AllOtherDays,
Until: 24:00, 0;


! Schedule: Dwell_DomCirculation_Light
Schedule:Compact,
Dwell_DomCirculation_Light,
Fraction,
Through: 31 Dec,
For: Weekdays SummerDesignDay,
Until: 07:00, 0,
Until: 10:00, 1,
Until: 19:00, 0,
Until: 23:00, 1,
Until: 24:00, 0,
For: Weekends,
Until: 07:00, 0,
Until: 24:00, 1,
For: Holidays,
Until: 07:00, 0,
Until: 24:00, 1,
For: WinterDesignDay AllOtherDays,
Until: 24:00, 0;


! Schedule: Default Air Velocity for Comfort Calculations
Schedule:Compact, 
Default Air Velocity for Comfort Calculations, 
Any Number,
Through: 12/31,
For: AllDays,   
Until: 24:00,   0.1370 ;



! Urea Formaldehyde Foam- thickness 0.133
Material, Urea Formaldehyde Foam_.133,
   Rough,                                         !- Roughness
   .133,                                          !- Thickness {m}
   0.04,                                          !- Conductivity {w/m-K}
   10,                                            !- Density {kg/m3}
   1400,                                          !- Specific Heat {J/kg-K}
   0.9,                                           !- Thermal Emittance
   0.6,                                           !- Solar Absorptance
   0.6;                                           !- Visible Absorptance

! Cast Concrete- thickness 0.1
Material, Cast Concrete_.1,
   Rough,                                         !- Roughness
   .1,                                            !- Thickness {m}
   1.13,                                          !- Conductivity {w/m-K}
   2000,                                          !- Density {kg/m3}
   1000,                                          !- Specific Heat {J/kg-K}
   0.9,                                           !- Thermal Emittance
   0.6,                                           !- Solar Absorptance
   0.6;                                           !- Visible Absorptance

! Floor/Roof Screed- thickness 0.07
Material, Floor/Roof Screed_.07,
   Rough,                                         !- Roughness
   .07,                                           !- Thickness {m}
   0.41,                                          !- Conductivity {w/m-K}
   1200,                                          !- Density {kg/m3}
   840,                                           !- Specific Heat {J/kg-K}
   0.9,                                           !- Thermal Emittance
   0.73,                                          !- Solar Absorptance
   0.73;                                          !- Visible Absorptance

! Timber Flooring- thickness 0.03
Material, Timber Flooring_.03,
   Rough,                                         !- Roughness
   .03,                                           !- Thickness {m}
   0.14,                                          !- Conductivity {w/m-K}
   650,                                           !- Density {kg/m3}
   1200,                                          !- Specific Heat {J/kg-K}
   0.9,                                           !- Thermal Emittance
   0.78,                                          !- Solar Absorptance
   0.78;                                          !- Visible Absorptance

! Asphalt 1- thickness 0.01
Material, Asphalt 1_.01,
   Rough,                                         !- Roughness
   .01,                                           !- Thickness {m}
   0.7,                                           !- Conductivity {w/m-K}
   2100,                                          !- Density {kg/m3}
   1000,                                          !- Specific Heat {J/kg-K}
   0.9,                                           !- Thermal Emittance
   0.85,                                          !- Solar Absorptance
   0.9;                                           !- Visible Absorptance

! MW Glass Wool (rolls)- thickness 0.145
Material, MW Glass Wool (rolls)_.145,
   Rough,                                         !- Roughness
   .145,                                          !- Thickness {m}
   0.04,                                          !- Conductivity {w/m-K}
   12,                                            !- Density {kg/m3}
   840,                                           !- Specific Heat {J/kg-K}
   0.9,                                           !- Thermal Emittance
   0.6,                                           !- Solar Absorptance
   0.6;                                           !- Visible Absorptance

! Plasterboard- thickness 0.013
Material, Plasterboard_.013,
   Rough,                                         !- Roughness
   .013,                                          !- Thickness {m}
   0.25,                                          !- Conductivity {w/m-K}
   2800,                                          !- Density {kg/m3}
   896,                                           !- Specific Heat {J/kg-K}
   0.9,                                           !- Thermal Emittance
   0.5,                                           !- Solar Absorptance
   0.5;                                           !- Visible Absorptance

! Brickwork Outer- thickness 0.1
Material, Brickwork Outer_.1,
   Rough,                                         !- Roughness
   .1,                                            !- Thickness {m}
   0.84,                                          !- Conductivity {w/m-K}
   1700,                                          !- Density {kg/m3}
   800,                                           !- Specific Heat {J/kg-K}
   0.9,                                           !- Thermal Emittance
   0.7,                                           !- Solar Absorptance
   0.7;                                           !- Visible Absorptance

! XPS Extruded Polystyrene  - CO2 Blowing- thickness 0.08
Material, XPS Extruded Polystyrene  - CO2 Blowing_.08,
   Rough,                                         !- Roughness
   .08,                                           !- Thickness {m}
   0.034,                                         !- Conductivity {w/m-K}
   35,                                            !- Density {kg/m3}
   1400,                                          !- Specific Heat {J/kg-K}
   0.9,                                           !- Thermal Emittance
   0.6,                                           !- Solar Absorptance
   0.6;                                           !- Visible Absorptance

! Concrete Block (Medium)- thickness 0.1
Material, Concrete Block (Medium)_.1,
   Rough,                                         !- Roughness
   .1,                                            !- Thickness {m}
   0.51,                                          !- Conductivity {w/m-K}
   1400,                                          !- Density {kg/m3}
   1000,                                          !- Specific Heat {J/kg-K}
   0.9,                                           !- Thermal Emittance
   0.6,                                           !- Solar Absorptance
   0.6;                                           !- Visible Absorptance

! Gypsum Plastering- thickness 0.013
Material, Gypsum Plastering_.013,
   Rough,                                         !- Roughness
   .013,                                          !- Thickness {m}
   0.4,                                           !- Conductivity {w/m-K}
   1000,                                          !- Density {kg/m3}
   1000,                                          !- Specific Heat {J/kg-K}
   0.9,                                           !- Thermal Emittance
   0.5,                                           !- Solar Absorptance
   0.5;                                           !- Visible Absorptance


! Project ground floor
Construction, Project ground floor,
   Urea Formaldehyde Foam_.133,                   !- .133m
   Cast Concrete_.1,                              !- .1m
   Floor/Roof Screed_.07,                         !- .07m
   Timber Flooring_.03;                           !- .03m

! <Previous reversed>
Construction, Project ground floor_Rev,
   Timber Flooring_.03,                           !- .03m
   Floor/Roof Screed_.07,                         !- .07m
   Cast Concrete_.1,                              !- .1m
   Urea Formaldehyde Foam_.133;                   !- .133m

! Special material to represent an R-value for the next construction
Material:NoMass, 3_RVAL_3,                        !- Material name - Air gap >=25mm
   Rough,                                         !- Roughness
   .18,                                           !- Resistance {m2-K/w}
   0.9,                                           !- Thermal Emittance
   0.7,                                           !- Solar Absorptance
   0.7;                                           !- Visible Absorptance

! Project flat roof
Construction, Project flat roof,
   Asphalt 1_.01,                                 !- .01m
   MW Glass Wool (rolls)_.145,                    !- .145m
   3_RVAL_3,                                      !- R-value
   Plasterboard_.013;                             !- .013m
